
     RDKit          2D

  1  0  0  0  0  0  0  0  0  0999 V2000
    0.0000    0.0000    0.0000 C   0  0  0  0  0  0  0  0  0  0  0  0
M  END
$$$$

     RDKit          2D

  6  6  0  0  0  0  0  0  0  0999 V2000
   -2.5340    0.4353    0.0000 C   0  0  0  0  0  0  0  0  0  0  0  0
   -1.4705   -0.6226    0.0000 B   0  0  0  0  0  0  0  0  0  0  0  0
   -0.0227   -0.2304    0.0000 C   0  0  0  0  0  0  0  0  0  0  0  0
    0.7239    1.0706    0.0000 C   0  0  0  0  0  0  0  0  0  0  0  0
    2.0249    0.3241    0.0000 C   0  0  0  0  0  0  0  0  0  0  0  0
    1.2784   -0.9770    0.0000 C   0  0  0  0  0  0  0  0  0  0  0  0
  1  2  1  0
  2  3  1  0
  3  4  2  0
  4  5  1  0
  5  6  2  0
  6  3  1  0
M  END
$$$$

     RDKit          2D

  6  6  0  0  0  0  0  0  0  0999 V2000
    2.3133   -0.0000    0.0000 C   0  0  0  0  0  0  0  0  0  0  0  0
    0.8133   -0.0000    0.0000 C   0  0  0  0  0  0  0  0  0  0  0  0
   -0.0684    1.2135    0.0000 C   0  0  0  0  0  0  0  0  0  0  0  0
   -1.4949    0.7500    0.0000 C   0  0  0  0  0  0  0  0  0  0  0  0
   -1.4949   -0.7500    0.0000 C   0  0  0  0  0  0  0  0  0  0  0  0
   -0.0684   -1.2135    0.0000 C   0  0  0  0  0  0  0  0  0  0  0  0
  1  2  1  0
  2  3  1  0
  3  4  2  0
  4  5  1  0
  5  6  2  0
  6  2  1  0
M  END
$$$$

     RDKit          2D

  7  7  0  0  0  0  0  0  0  0999 V2000
   -3.4132    0.0173    0.0000 C   0  0  0  0  0  0  0  0  0  0  0  0
   -1.9676    0.4178    0.0000 C   0  0  0  0  0  0  0  0  0  0  0  0
   -0.8980   -0.6339    0.0000 C   0  0  0  0  0  0  0  0  0  0  0  0
    0.5475   -0.2335    0.0000 C   0  0  0  0  0  0  0  0  0  0  0  0
    1.2865    1.0719    0.0000 C   0  0  0  0  0  0  0  0  0  0  0  0
    2.5919    0.3328    0.0000 C   0  0  0  0  0  0  0  0  0  0  0  0
    1.8528   -0.9725    0.0000 C   0  0  0  0  0  0  0  0  0  0  0  0
  1  2  1  0
  2  3  1  0
  3  4  1  0
  4  5  2  0
  5  6  1  0
  6  7  2  0
  7  4  1  0
M  END
$$$$

     RDKit          2D

  7  7  0  0  0  0  0  0  0  0999 V2000
   -3.4132    0.0173    0.0000 C   0  0  0  0  0  0  0  0  0  0  0  0
   -1.9676    0.4178    0.0000 C   0  0  0  0  0  0  0  0  0  0  0  0
   -0.8980   -0.6339    0.0000 O   0  0  0  0  0  0  0  0  0  0  0  0
    0.5475   -0.2335    0.0000 C   0  0  0  0  0  0  0  0  0  0  0  0
    1.2865    1.0719    0.0000 C   0  0  0  0  0  0  0  0  0  0  0  0
    2.5919    0.3328    0.0000 C   0  0  0  0  0  0  0  0  0  0  0  0
    1.8528   -0.9725    0.0000 C   0  0  0  0  0  0  0  0  0  0  0  0
  1  2  1  0
  2  3  1  0
  3  4  1  0
  4  5  2  0
  5  6  1  0
  6  7  2  0
  7  4  1  0
M  END
$$$$

     RDKit          2D

  6  6  0  0  0  0  0  0  0  0999 V2000
   -2.5340    0.4353    0.0000 C   0  0  0  0  0  0  0  0  0  0  0  0
   -1.4705   -0.6226    0.0000 C   0  0  0  0  0  0  0  0  0  0  0  0
   -0.0227   -0.2304    0.0000 C   0  0  0  0  0  0  0  0  0  0  0  0
    0.7239    1.0706    0.0000 C   0  0  0  0  0  0  0  0  0  0  0  0
    2.0249    0.3241    0.0000 C   0  0  0  0  0  0  0  0  0  0  0  0
    1.2784   -0.9770    0.0000 C   0  0  0  0  0  0  0  0  0  0  0  0
  1  2  1  0
  2  3  1  0
  3  4  2  0
  4  5  1  0
  5  6  2  0
  6  3  1  0
M  END
$$$$

     RDKit          2D

  6  6  0  0  0  0  0  0  0  0999 V2000
    2.3133   -0.0000    0.0000 C   0  0  0  0  0  0  0  0  0  0  0  0
    0.8133   -0.0000    0.0000 N   0  0  0  0  0  0  0  0  0  0  0  0
   -0.0684    1.2135    0.0000 C   0  0  0  0  0  0  0  0  0  0  0  0
   -1.4949    0.7500    0.0000 C   0  0  0  0  0  0  0  0  0  0  0  0
   -1.4949   -0.7500    0.0000 C   0  0  0  0  0  0  0  0  0  0  0  0
   -0.0684   -1.2135    0.0000 C   0  0  0  0  0  0  0  0  0  0  0  0
  1  2  1  0
  2  3  1  0
  3  4  2  0
  4  5  1  0
  5  6  2  0
  6  2  1  0
M  END
$$$$

     RDKit          2D

  6  6  0  0  0  0  0  0  0  0999 V2000
   -2.5340    0.4353    0.0000 C   0  0  0  0  0  0  0  0  0  0  0  0
   -1.4705   -0.6226    0.0000 N   0  0  0  0  0  0  0  0  0  0  0  0
   -0.0227   -0.2304    0.0000 C   0  0  0  0  0  0  0  0  0  0  0  0
    0.7239    1.0706    0.0000 C   0  0  0  0  0  0  0  0  0  0  0  0
    2.0249    0.3241    0.0000 C   0  0  0  0  0  0  0  0  0  0  0  0
    1.2784   -0.9770    0.0000 C   0  0  0  0  0  0  0  0  0  0  0  0
  1  2  1  0
  2  3  1  0
  3  4  2  0
  4  5  1  0
  5  6  2  0
  6  3  1  0
M  END
$$$$

     RDKit          2D

  7  7  0  0  0  0  0  0  0  0999 V2000
   -3.4132    0.0173    0.0000 C   0  0  0  0  0  0  0  0  0  0  0  0
   -1.9676    0.4178    0.0000 O   0  0  0  0  0  0  0  0  0  0  0  0
   -0.8980   -0.6339    0.0000 C   0  0  0  0  0  0  0  0  0  0  0  0
    0.5475   -0.2335    0.0000 C   0  0  0  0  0  0  0  0  0  0  0  0
    1.2865    1.0719    0.0000 C   0  0  0  0  0  0  0  0  0  0  0  0
    2.5919    0.3328    0.0000 C   0  0  0  0  0  0  0  0  0  0  0  0
    1.8528   -0.9725    0.0000 C   0  0  0  0  0  0  0  0  0  0  0  0
  1  2  1  0
  2  3  1  0
  3  4  1  0
  4  5  2  0
  5  6  1  0
  6  7  2  0
  7  4  1  0
M  END
$$$$

     RDKit          2D

  6  6  0  0  0  0  0  0  0  0999 V2000
   -2.5340    0.4353    0.0000 C   0  0  0  0  0  0  0  0  0  0  0  0
   -1.4705   -0.6226    0.0000 O   0  0  0  0  0  0  0  0  0  0  0  0
   -0.0227   -0.2304    0.0000 C   0  0  0  0  0  0  0  0  0  0  0  0
    0.7239    1.0706    0.0000 C   0  0  0  0  0  0  0  0  0  0  0  0
    2.0249    0.3241    0.0000 C   0  0  0  0  0  0  0  0  0  0  0  0
    1.2784   -0.9770    0.0000 C   0  0  0  0  0  0  0  0  0  0  0  0
  1  2  1  0
  2  3  1  0
  3  4  2  0
  4  5  1  0
  5  6  2  0
  6  3  1  0
M  END
$$$$

     RDKit          2D

  6  6  0  0  0  0  0  0  0  0999 V2000
    2.3133   -0.0000    0.0000 C   0  0  0  0  0  0  0  0  0  0  0  0
    0.8133   -0.0000    0.0000 C   0  0  0  0  0  0  0  0  0  0  0  0
   -0.0684    1.2135    0.0000 C   0  0  0  0  0  0  0  0  0  0  0  0
   -1.4949    0.7500    0.0000 C   0  0  0  0  0  0  0  0  0  0  0  0
   -1.4949   -0.7500    0.0000 C   0  0  0  0  0  0  0  0  0  0  0  0
   -0.0684   -1.2135    0.0000 C   0  0  0  0  0  0  0  0  0  0  0  0
  1  2  1  0
  2  3  2  0
  3  4  1  0
  4  5  1  0
  5  6  2  0
  6  2  1  0
M  END
$$$$

     RDKit          2D

  6  6  0  0  0  0  0  0  0  0999 V2000
    2.3133   -0.0000    0.0000 C   0  0  0  0  0  0  0  0  0  0  0  0
    0.8133   -0.0000    0.0000 C   0  0  0  0  0  0  0  0  0  0  0  0
   -0.0684    1.2135    0.0000 C   0  0  0  0  0  0  0  0  0  0  0  0
   -1.4949    0.7500    0.0000 C   0  0  0  0  0  0  0  0  0  0  0  0
   -1.4949   -0.7500    0.0000 N   0  0  0  0  0  0  0  0  0  0  0  0
   -0.0684   -1.2135    0.0000 C   0  0  0  0  0  0  0  0  0  0  0  0
  1  2  1  0
  2  3  1  0
  3  4  2  0
  4  5  1  0
  5  6  1  0
  6  2  2  0
M  END
$$$$

     RDKit          2D

  5  5  0  0  0  0  0  0  0  0999 V2000
    2.0485    0.0000    0.0000 C   0  0  0  0  0  0  0  0  0  0  0  0
    0.5485   -0.0000    0.0000 C   0  0  0  0  0  0  0  0  0  0  0  0
   -0.5121   -1.0607    0.0000 C   0  0  0  0  0  0  0  0  0  0  0  0
   -1.5728    0.0000    0.0000 C   0  0  0  0  0  0  0  0  0  0  0  0
   -0.5121    1.0607    0.0000 C   0  0  0  0  0  0  0  0  0  0  0  0
  1  2  1  0
  2  3  2  0
  3  4  1  0
  4  5  2  0
  5  2  1  0
M  END
$$$$

     RDKit          2D

  5  5  0  0  0  0  0  0  0  0999 V2000
    2.0485    0.0000    0.0000 C   0  0  0  0  0  0  0  0  0  0  0  0
    0.5485   -0.0000    0.0000 C   0  0  0  0  0  0  0  0  0  0  0  0
   -0.5121   -1.0607    0.0000 C   0  0  0  0  0  0  0  0  0  0  0  0
   -1.5728    0.0000    0.0000 C   0  0  0  0  0  0  0  0  0  0  0  0
   -0.5121    1.0607    0.0000 C   0  0  0  0  0  0  0  0  0  0  0  0
  1  2  1  0
  2  3  2  0
  3  4  1  0
  4  5  2  0
  5  2  1  0
M  END
$$$$

     RDKit          2D

  6  6  0  0  0  0  0  0  0  0999 V2000
   -1.8107   -1.2071    0.0000 C   0  0  0  0  0  0  0  0  0  0  0  0
   -0.7500   -0.1464    0.0000 C   0  0  0  0  0  0  0  0  0  0  0  0
   -0.7500    1.3536    0.0000 C   0  0  0  0  0  0  0  0  0  0  0  0
    0.7500    1.3536    0.0000 C   0  0  0  0  0  0  0  0  0  0  0  0
    0.7500   -0.1464    0.0000 C   0  0  0  0  0  0  0  0  0  0  0  0
    1.8107   -1.2071    0.0000 C   0  0  0  0  0  0  0  0  0  0  0  0
  1  2  1  0
  2  3  2  0
  3  4  1  0
  4  5  2  0
  5  6  1  0
  5  2  1  0
M  END
$$$$

     RDKit          2D

  6  6  0  0  0  0  0  0  0  0999 V2000
   -1.8107   -1.2071    0.0000 C   0  0  0  0  0  0  0  0  0  0  0  0
   -0.7500   -0.1464    0.0000 C   0  0  0  0  0  0  0  0  0  0  0  0
   -0.7500    1.3536    0.0000 C   0  0  0  0  0  0  0  0  0  0  0  0
    0.7500    1.3536    0.0000 C   0  0  0  0  0  0  0  0  0  0  0  0
    0.7500   -0.1464    0.0000 C   0  0  0  0  0  0  0  0  0  0  0  0
    1.8107   -1.2071    0.0000 F   0  0  0  0  0  0  0  0  0  0  0  0
  1  2  1  0
  2  3  2  0
  3  4  1  0
  4  5  2  0
  5  6  1  0
  5  2  1  0
M  END
$$$$

     RDKit          2D

  6  6  0  0  0  0  0  0  0  0999 V2000
   -1.8107   -1.2071    0.0000 C   0  0  0  0  0  0  0  0  0  0  0  0
   -0.7500   -0.1464    0.0000 C   0  0  0  0  0  0  0  0  0  0  0  0
   -0.7500    1.3536    0.0000 C   0  0  0  0  0  0  0  0  0  0  0  0
    0.7500    1.3536    0.0000 C   0  0  0  0  0  0  0  0  0  0  0  0
    0.7500   -0.1464    0.0000 C   0  0  0  0  0  0  0  0  0  0  0  0
    1.8107   -1.2071    0.0000 O   0  0  0  0  0  0  0  0  0  0  0  0
  1  2  1  0
  2  3  2  0
  3  4  1  0
  4  5  2  0
  5  6  1  0
  5  2  1  0
M  END
$$$$

     RDKit          2D

  6  6  0  0  0  0  0  0  0  0999 V2000
    2.3133   -0.0000    0.0000 C   0  0  0  0  0  0  0  0  0  0  0  0
    0.8133   -0.0000    0.0000 C   0  0  0  0  0  0  0  0  0  0  0  0
   -0.0684    1.2135    0.0000 C   0  0  0  0  0  0  0  0  0  0  0  0
   -1.4949    0.7500    0.0000 C   0  0  0  0  0  0  0  0  0  0  0  0
   -1.4949   -0.7500    0.0000 C   0  0  0  0  0  0  0  0  0  0  0  0
   -0.0684   -1.2135    0.0000 C   0  0  0  0  0  0  0  0  0  0  0  0
  1  2  1  0
  2  3  2  0
  3  4  1  0
  4  5  2  0
  5  6  1  0
  6  2  1  0
M  END
$$$$

     RDKit          2D

  6  6  0  0  0  0  0  0  0  0999 V2000
    2.3133   -0.0000    0.0000 C   0  0  0  0  0  0  0  0  0  0  0  0
    0.8133   -0.0000    0.0000 C   0  0  0  0  0  0  0  0  0  0  0  0
   -0.0684    1.2135    0.0000 C   0  0  0  0  0  0  0  0  0  0  0  0
   -1.4949    0.7500    0.0000 C   0  0  0  0  0  0  0  0  0  0  0  0
   -1.4949   -0.7500    0.0000 C   0  0  0  0  0  0  0  0  0  0  0  0
   -0.0684   -1.2135    0.0000 S   0  0  0  0  0  0  0  0  0  0  0  0
  1  2  1  0
  2  3  2  0
  3  4  1  0
  4  5  2  0
  5  6  1  0
  6  2  1  0
M  END
$$$$

     RDKit          2D

  7  7  0  0  0  0  0  0  0  0999 V2000
    2.5714    0.0000    0.0000 C   0  0  0  0  0  0  0  0  0  0  0  0
    1.0714   -0.0000    0.0000 C   0  0  0  0  0  0  0  0  0  0  0  0
    0.3214   -1.2990    0.0000 C   0  0  0  0  0  0  0  0  0  0  0  0
   -1.1786   -1.2990    0.0000 C   0  0  0  0  0  0  0  0  0  0  0  0
   -1.9286    0.0000    0.0000 C   0  0  0  0  0  0  0  0  0  0  0  0
   -1.1786    1.2990    0.0000 C   0  0  0  0  0  0  0  0  0  0  0  0
    0.3214    1.2990    0.0000 C   0  0  0  0  0  0  0  0  0  0  0  0
  1  2  1  0
  2  3  2  0
  3  4  1  0
  4  5  2  0
  5  6  1  0
  6  7  2  0
  7  2  1  0
M  END
$$$$

     RDKit          2D

  6  6  0  0  0  0  0  0  0  0999 V2000
    2.3133   -0.0000    0.0000 C   0  0  0  0  0  0  0  0  0  0  0  0
    0.8133   -0.0000    0.0000 C   0  0  0  0  0  0  0  0  0  0  0  0
   -0.0684    1.2135    0.0000 C   0  0  0  0  0  0  0  0  0  0  0  0
   -1.4949    0.7500    0.0000 C   0  0  0  0  0  0  0  0  0  0  0  0
   -1.4949   -0.7500    0.0000 C   0  0  0  0  0  0  0  0  0  0  0  0
   -0.0684   -1.2135    0.0000 O   0  0  0  0  0  0  0  0  0  0  0  0
  1  2  1  0
  2  3  2  0
  3  4  1  0
  4  5  2  0
  5  6  1  0
  6  2  1  0
M  END
$$$$

     RDKit          2D

  6  6  0  0  0  0  0  0  0  0999 V2000
    2.3133   -0.0000    0.0000 C   0  0  0  0  0  0  0  0  0  0  0  0
    0.8133   -0.0000    0.0000 C   0  0  0  0  0  0  0  0  0  0  0  0
   -0.0684    1.2135    0.0000 C   0  0  0  0  0  0  0  0  0  0  0  0
   -1.4949    0.7500    0.0000 C   0  0  0  0  0  0  0  0  0  0  0  0
   -1.4949   -0.7500    0.0000 C   0  0  0  0  0  0  0  0  0  0  0  0
   -0.0684   -1.2135    0.0000 S   0  0  0  0  0  0  0  0  0  0  0  0
  1  2  1  0
  2  3  2  0
  3  4  1  0
  4  5  2  0
  5  6  1  0
  6  2  1  0
M  END
$$$$

     RDKit          2D

  5  5  0  0  0  0  0  0  0  0999 V2000
    2.0485    0.0000    0.0000 C   0  0  0  0  0  0  0  0  0  0  0  0
    0.5485   -0.0000    0.0000 C   0  0  0  0  0  0  0  0  0  0  0  0
   -0.5121   -1.0607    0.0000 C   0  0  0  0  0  0  0  0  0  0  0  0
   -1.5728    0.0000    0.0000 C   0  0  0  0  0  0  0  0  0  0  0  0
   -0.5121    1.0607    0.0000 N   0  0  0  0  0  0  0  0  0  0  0  0
  1  2  1  0
  2  3  2  0
  3  4  1  0
  4  5  2  0
  5  2  1  0
M  END
$$$$

     RDKit          2D

  6  6  0  0  0  0  0  0  0  0999 V2000
    2.3133   -0.0000    0.0000 C   0  0  0  0  0  0  0  0  0  0  0  0
    0.8133   -0.0000    0.0000 C   0  0  0  0  0  0  0  0  0  0  0  0
   -0.0684    1.2135    0.0000 C   0  0  0  0  0  0  0  0  0  0  0  0
   -1.4949    0.7500    0.0000 C   0  0  0  0  0  0  0  0  0  0  0  0
   -1.4949   -0.7500    0.0000 O   0  0  0  0  0  0  0  0  0  0  0  0
   -0.0684   -1.2135    0.0000 C   0  0  0  0  0  0  0  0  0  0  0  0
  1  2  1  0
  2  3  1  0
  3  4  2  0
  4  5  1  0
  5  6  1  0
  6  2  2  0
M  END
$$$$

     RDKit          2D

  6  6  0  0  0  0  0  0  0  0999 V2000
    2.3133   -0.0000    0.0000 C   0  0  0  0  0  0  0  0  0  0  0  0
    0.8133   -0.0000    0.0000 C   0  0  0  0  0  0  0  0  0  0  0  0
   -0.0684    1.2135    0.0000 C   0  0  0  0  0  0  0  0  0  0  0  0
   -1.4949    0.7500    0.0000 C   0  0  0  0  0  0  0  0  0  0  0  0
   -1.4949   -0.7500    0.0000 S   0  0  0  0  0  0  0  0  0  0  0  0
   -0.0684   -1.2135    0.0000 C   0  0  0  0  0  0  0  0  0  0  0  0
  1  2  1  0
  2  3  1  0
  3  4  2  0
  4  5  1  0
  5  6  1  0
  6  2  2  0
M  END
$$$$

     RDKit          2D

  4  4  0  0  0  0  0  0  0  0999 V2000
    1.7745    0.0000    0.0000 C   0  0  0  0  0  0  0  0  0  0  0  0
    0.2745   -0.0000    0.0000 C   0  0  0  0  0  0  0  0  0  0  0  0
   -1.0245    0.7500    0.0000 C   0  0  0  0  0  0  0  0  0  0  0  0
   -1.0245   -0.7500    0.0000 O   0  0  0  0  0  0  0  0  0  0  0  0
  1  2  1  0
  2  3  2  0
  3  4  1  0
  4  2  1  0
M  END
$$$$

     RDKit          2D

  5  5  0  0  0  0  0  0  0  0999 V2000
    2.0485    0.0000    0.0000 C   0  0  0  0  0  0  0  0  0  0  0  0
    0.5485   -0.0000    0.0000 C   0  0  0  0  0  0  0  0  0  0  0  0
   -0.5121   -1.0607    0.0000 C   0  0  0  0  0  0  0  0  0  0  0  0
   -1.5728    0.0000    0.0000 P   0  0  0  0  0  0  0  0  0  0  0  0
   -0.5121    1.0607    0.0000 C   0  0  0  0  0  0  0  0  0  0  0  0
  1  2  1  0
  2  3  2  0
  3  4  1  0
  4  5  2  0
  5  2  1  0
M  END
$$$$

     RDKit          2D

  4  4  0  0  0  0  0  0  0  0999 V2000
    1.7745    0.0000    0.0000 C   0  0  0  0  0  0  0  0  0  0  0  0
    0.2745   -0.0000    0.0000 C   0  0  0  0  0  0  0  0  0  0  0  0
   -1.0245    0.7500    0.0000 C   0  0  0  0  0  0  0  0  0  0  0  0
   -1.0245   -0.7500    0.0000 S   0  0  0  0  0  0  0  0  0  0  0  0
  1  2  1  0
  2  3  2  0
  3  4  1  0
  4  2  1  0
M  END
$$$$

     RDKit          2D

  6  6  0  0  0  0  0  0  0  0999 V2000
   -2.5340    0.4353    0.0000 N   0  0  0  0  0  0  0  0  0  0  0  0
   -1.4705   -0.6226    0.0000 C   0  0  0  0  0  0  0  0  0  0  0  0
   -0.0227   -0.2304    0.0000 C   0  0  0  0  0  0  0  0  0  0  0  0
    0.7239    1.0706    0.0000 C   0  0  0  0  0  0  0  0  0  0  0  0
    2.0249    0.3241    0.0000 C   0  0  0  0  0  0  0  0  0  0  0  0
    1.2784   -0.9770    0.0000 C   0  0  0  0  0  0  0  0  0  0  0  0
  1  2  1  0
  2  3  1  0
  3  4  2  0
  4  5  1  0
  5  6  2  0
  6  3  1  0
M  END
$$$$

     RDKit          2D

  6  6  0  0  0  0  0  0  0  0999 V2000
   -2.5340    0.4353    0.0000 O   0  0  0  0  0  0  0  0  0  0  0  0
   -1.4705   -0.6226    0.0000 C   0  0  0  0  0  0  0  0  0  0  0  0
   -0.0227   -0.2304    0.0000 C   0  0  0  0  0  0  0  0  0  0  0  0
    0.7239    1.0706    0.0000 C   0  0  0  0  0  0  0  0  0  0  0  0
    2.0249    0.3241    0.0000 C   0  0  0  0  0  0  0  0  0  0  0  0
    1.2784   -0.9770    0.0000 C   0  0  0  0  0  0  0  0  0  0  0  0
  1  2  1  0
  2  3  1  0
  3  4  2  0
  4  5  1  0
  5  6  2  0
  6  3  1  0
M  END
$$$$

     RDKit          2D

  5  5  0  0  0  0  0  0  0  0999 V2000
    2.0485    0.0000    0.0000 O   0  0  0  0  0  0  0  0  0  0  0  0
    0.5485   -0.0000    0.0000 C   0  0  0  0  0  0  0  0  0  0  0  0
   -0.5121   -1.0607    0.0000 C   0  0  0  0  0  0  0  0  0  0  0  0
   -1.5728    0.0000    0.0000 C   0  0  0  0  0  0  0  0  0  0  0  0
   -0.5121    1.0607    0.0000 C   0  0  0  0  0  0  0  0  0  0  0  0
  1  2  1  0
  2  3  2  0
  3  4  1  0
  4  5  2  0
  5  2  1  0
M  END
$$$$

     RDKit          2D

  5  5  0  0  0  0  0  0  0  0999 V2000
    2.0485    0.0000    0.0000 S   0  0  0  0  0  0  0  0  0  0  0  0
    0.5485   -0.0000    0.0000 C   0  0  0  0  0  0  0  0  0  0  0  0
   -0.5121   -1.0607    0.0000 C   0  0  0  0  0  0  0  0  0  0  0  0
   -1.5728    0.0000    0.0000 C   0  0  0  0  0  0  0  0  0  0  0  0
   -0.5121    1.0607    0.0000 C   0  0  0  0  0  0  0  0  0  0  0  0
  1  2  1  0
  2  3  2  0
  3  4  1  0
  4  5  2  0
  5  2  1  0
M  END
$$$$

     RDKit          2D

  3  3  0  0  0  0  0  0  0  0999 V2000
    0.8660   -0.0000    0.0000 C   0  0  0  0  0  0  0  0  0  0  0  0
   -0.4330    0.7500    0.0000 C   0  0  0  0  0  0  0  0  0  0  0  0
   -0.4330   -0.7500    0.0000 C   0  0  0  0  0  0  0  0  0  0  0  0
  1  2  2  0
  2  3  1  0
  3  1  1  0
M  END
$$$$

     RDKit          2D

  4  4  0  0  0  0  0  0  0  0999 V2000
    1.0607   -0.0000    0.0000 C   0  0  0  0  0  0  0  0  0  0  0  0
   -0.0000   -1.0607    0.0000 C   0  0  0  0  0  0  0  0  0  0  0  0
   -1.0607    0.0000    0.0000 C   0  0  0  0  0  0  0  0  0  0  0  0
    0.0000    1.0607    0.0000 C   0  0  0  0  0  0  0  0  0  0  0  0
  1  2  2  0
  2  3  1  0
  3  4  2  0
  4  1  1  0
M  END
$$$$

     RDKit          2D

  5  5  0  0  0  0  0  0  0  0999 V2000
    1.2760   -0.0000    0.0000 C   0  0  0  0  0  0  0  0  0  0  0  0
    0.3943    1.2135    0.0000 C   0  0  0  0  0  0  0  0  0  0  0  0
   -1.0323    0.7500    0.0000 C   0  0  0  0  0  0  0  0  0  0  0  0
   -1.0323   -0.7500    0.0000 C   0  0  0  0  0  0  0  0  0  0  0  0
    0.3943   -1.2135    0.0000 C   0  0  0  0  0  0  0  0  0  0  0  0
  1  2  2  0
  2  3  1  0
  3  4  1  0
  4  5  2  0
  5  1  1  0
M  END
$$$$
